
OS:Version,
  {f8bb4169-e4f2-4bda-b66d-e3253f1e4750}, !- Handle
  3.9.0;                                  !- Version Identifier

OS:Schedule:Constant,
  {044c768b-129c-4c07-af24-9f6dfd901951}, !- Handle
  Always On Discrete,                     !- Name
  {4a703b75-078a-45a7-8555-124adec6cbdc}, !- Schedule Type Limits Name
  1;                                      !- Value

OS:ScheduleTypeLimits,
  {4a703b75-078a-45a7-8555-124adec6cbdc}, !- Handle
  Always On Discrete Limits,              !- Name
  0,                                      !- Lower Limit Value
  1,                                      !- Upper Limit Value
  Discrete,                               !- Numeric Type
  Availability;                           !- Unit Type

OS:Site,
  {60c4cd85-d64b-4e19-b936-8f6a234d9ff1}, !- Handle
  New York-John F Kennedy Intl AP_NY_USA, !- Name
  40.65,                                  !- Latitude {deg}
  -73.8,                                  !- Longitude {deg}
  -5,                                     !- Time Zone {hr}
  5,                                      !- Elevation {m}
  City;                                   !- Terrain

OS:SimulationControl,
  {9c1f4b92-ed28-4bd0-9880-5794827dcfa3}, !- Handle
  Yes,                                    !- Do Zone Sizing Calculation
  Yes,                                    !- Do System Sizing Calculation
  Yes,                                    !- Do Plant Sizing Calculation
  No,                                     !- Run Simulation for Sizing Periods
  Yes,                                    !- Run Simulation for Weather File Run Periods
  0.04,                                   !- Loads Convergence Tolerance Value {W}
  0.2,                                    !- Temperature Convergence Tolerance Value {deltaC}
  FullInteriorAndExterior,                !- Solar Distribution
  25,                                     !- Maximum Number of Warmup Days
  6,                                      !- Minimum Number of Warmup Days
  No,                                     !- Do HVAC Sizing Simulation for Sizing Periods
  1;                                      !- Maximum Number of HVAC Sizing Simulation Passes

OS:Surface,
  {06577328-caef-40b8-afdf-d3f3bc882286}, !- Handle
  247258,                                 !- Name
  Wall,                                   !- Surface Type
  ,                                       !- Construction Name
  {86ed8403-dbfa-4ff7-aa9d-0356bdcf18c8}, !- Space Name
  Surface,                                !- Outside Boundary Condition
  {79dbc3b2-7700-4e0c-9d4e-621bcaf143a2}, !- Outside Boundary Condition Object
  NoSun,                                  !- Sun Exposure
  NoWind,                                 !- Wind Exposure
  ,                                       !- View Factor to Ground
  ,                                       !- Number of Vertices
  -7.3152, 0, 3.048,                      !- X,Y,Z Vertex 1 {m}
  -7.3152, 0, 0,                          !- X,Y,Z Vertex 2 {m}
  -7.3152, -10.0584, 0,                   !- X,Y,Z Vertex 3 {m}
  -7.3152, -10.0584, 3.048;               !- X,Y,Z Vertex 4 {m}

OS:Space,
  {86ed8403-dbfa-4ff7-aa9d-0356bdcf18c8}, !- Handle
  Floor 2 Exam 7,                         !- Name
  {0d3e8175-a2cd-4092-b4f9-8c75c4286398}, !- Space Type Name
  ,                                       !- Default Construction Set Name
  ,                                       !- Default Schedule Set Name
  0,                                      !- Direction of Relative North {deg}
  38.1,                                   !- X Origin {m}
  28.3464,                                !- Y Origin {m}
  3.048,                                  !- Z Origin {m}
  {8d24ab9c-279b-4457-9719-9c774ab72027}, !- Building Story Name
  {e645a25a-0191-4a02-b43c-7c7a0490c536}, !- Thermal Zone Name
  Yes;                                    !- Part of Total Floor Area

OS:Space,
  {bcc5f281-0488-4a95-ad95-bd7168cfac49}, !- Handle
  Floor 2 Reception,                      !- Name
  {654a2ba4-012f-4a52-8376-4ba70dd7195d}, !- Space Type Name
  ,                                       !- Default Construction Set Name
  ,                                       !- Default Schedule Set Name
  0,                                      !- Direction of Relative North {deg}
  2.1336,                                 !- X Origin {m}
  16.4592,                                !- Y Origin {m}
  3.048,                                  !- Z Origin {m}
  {8d24ab9c-279b-4457-9719-9c774ab72027}, !- Building Story Name
  {daea2185-1382-4cc0-86a8-944884a83216}, !- Thermal Zone Name
  Yes;                                    !- Part of Total Floor Area

OS:Space,
  {2ae91237-f2ec-4554-9207-69fae185a701}, !- Handle
  Floor 1 Sterile Storage,                !- Name
  {d5036be5-3824-404e-9091-02d865283c2f}, !- Space Type Name
  ,                                       !- Default Construction Set Name
  ,                                       !- Default Schedule Set Name
  0,                                      !- Direction of Relative North {deg}
  32.004,                                 !- X Origin {m}
  13.1064,                                !- Y Origin {m}
  0,                                      !- Z Origin {m}
  {faa479b0-c744-4377-8d20-7db5183673cd}, !- Building Story Name
  {1f4b8627-112b-4be3-b347-8bc03419f7c5}, !- Thermal Zone Name
  Yes;                                    !- Part of Total Floor Area

OS:Surface,
  {9dbe9d57-b656-41e9-8fcf-854149939f4c}, !- Handle
  FF8B08,                                 !- Name
  Wall,                                   !- Surface Type
  ,                                       !- Construction Name
  {86ed8403-dbfa-4ff7-aa9d-0356bdcf18c8}, !- Space Name
  Surface,                                !- Outside Boundary Condition
  {5f300abc-5630-4996-b714-3d44d5e64d3c}, !- Outside Boundary Condition Object
  NoSun,                                  !- Sun Exposure
  NoWind,                                 !- Wind Exposure
  ,                                       !- View Factor to Ground
  ,                                       !- Number of Vertices
  0, -10.0584, 3.048,                     !- X,Y,Z Vertex 1 {m}
  0, -10.0584, 0,                         !- X,Y,Z Vertex 2 {m}
  0, 0, 0,                                !- X,Y,Z Vertex 3 {m}
  0, 0, 3.048;                            !- X,Y,Z Vertex 4 {m}

OS:Surface,
  {1107610b-26fd-4b4d-9561-6c4e51227def}, !- Handle
  17C5CF,                                 !- Name
  Floor,                                  !- Surface Type
  ,                                       !- Construction Name
  {352abff7-7684-4793-af1f-8f9ab4c84c05}, !- Space Name
  Surface,                                !- Outside Boundary Condition
  {35c0d19d-830f-4311-97ec-b78a33fce46a}, !- Outside Boundary Condition Object
  NoSun,                                  !- Sun Exposure
  NoWind,                                 !- Wind Exposure
  ,                                       !- View Factor to Ground
  ,                                       !- Number of Vertices
  7.3152, 3.6576, 0,                      !- X,Y,Z Vertex 1 {m}
  7.3152, 0, 0,                           !- X,Y,Z Vertex 2 {m}
  0, 0, 0,                                !- X,Y,Z Vertex 3 {m}
  0, 3.6576, 0;                           !- X,Y,Z Vertex 4 {m}

OS:Space,
  {352abff7-7684-4793-af1f-8f9ab4c84c05}, !- Handle
  Floor 2 Exam 3,                         !- Name
  {0d3e8175-a2cd-4092-b4f9-8c75c4286398}, !- Space Type Name
  ,                                       !- Default Construction Set Name
  ,                                       !- Default Schedule Set Name
  0,                                      !- Direction of Relative North {deg}
  30.7848,                                !- X Origin {m}
  0,                                      !- Y Origin {m}
  3.048,                                  !- Z Origin {m}
  {8d24ab9c-279b-4457-9719-9c774ab72027}, !- Building Story Name
  {9783c1ce-035f-4efb-b76f-43af2d3e41cd}, !- Thermal Zone Name
  Yes;                                    !- Part of Total Floor Area

OS:Surface,
  {70b8e034-84ee-4282-8a89-372426f777d1}, !- Handle
  EC2478,                                 !- Name
  RoofCeiling,                            !- Surface Type
  ,                                       !- Construction Name
  {006af7b5-d11d-4fe8-af64-4fc32747ca2c}, !- Space Name
  Surface,                                !- Outside Boundary Condition
  {eb3727dc-4f17-4f5f-a1f7-c8ba82c2e9d2}, !- Outside Boundary Condition Object
  NoSun,                                  !- Sun Exposure
  NoWind,                                 !- Wind Exposure
  ,                                       !- View Factor to Ground
  ,                                       !- Number of Vertices
  1.524, 0, 3.048,                        !- X,Y,Z Vertex 1 {m}
  1.524, 0.3048, 3.048,                   !- X,Y,Z Vertex 2 {m}
  0, 0.3048, 3.048,                       !- X,Y,Z Vertex 3 {m}
  0, 0, 3.048;                            !- X,Y,Z Vertex 4 {m}

OS:Space,
  {006af7b5-d11d-4fe8-af64-4fc32747ca2c}, !- Handle
  Floor 1 Clean,                          !- Name
  {fcf6ef36-a186-4726-a410-3823b26cc745}, !- Space Type Name
  ,                                       !- Default Construction Set Name
  ,                                       !- Default Schedule Set Name
  0,                                      !- Direction of Relative North {deg}
  29.2608,                                !- X Origin {m}
  8.8392,                                 !- Y Origin {m}
  0,                                      !- Z Origin {m}
  {faa479b0-c744-4377-8d20-7db5183673cd}, !- Building Story Name
  {f9bab30a-f19f-41da-8882-e9c6452c8e13}, !- Thermal Zone Name
  Yes;                                    !- Part of Total Floor Area

OS:Space,
  {20251e6a-fe1c-4986-bf3b-cd01d1ff3822}, !- Handle
  Floor 1 Pre-Op Room 2,                  !- Name
  {e8639169-3ea2-4177-89f2-12d93cc525b2}, !- Space Type Name
  ,                                       !- Default Construction Set Name
  ,                                       !- Default Schedule Set Name
  0,                                      !- Direction of Relative North {deg}
  24.384,                                 !- X Origin {m}
  8.8392,                                 !- Y Origin {m}
  0,                                      !- Z Origin {m}
  {faa479b0-c744-4377-8d20-7db5183673cd}, !- Building Story Name
  {124e4141-37ef-4d36-bff9-ef8e2ed95fdf}, !- Thermal Zone Name
  Yes;                                    !- Part of Total Floor Area

OS:Surface,
  {f06dccf5-455a-453f-898e-5eedfee5413d}, !- Handle
  F6DDE6,                                 !- Name
  Floor,                                  !- Surface Type
  ,                                       !- Construction Name
  {df26f40a-11a7-419c-97c1-308b2f622f88}, !- Space Name
  Surface,                                !- Outside Boundary Condition
  {5ad68a99-1137-4119-8c5b-19834ff680ee}, !- Outside Boundary Condition Object
  NoSun,                                  !- Sun Exposure
  NoWind,                                 !- Wind Exposure
  ,                                       !- View Factor to Ground
  ,                                       !- Number of Vertices
  0, 0, 0,                                !- X,Y,Z Vertex 1 {m}
  0, -2.7432, 0,                          !- X,Y,Z Vertex 2 {m}
  -4.2672, -2.7432, 0,                    !- X,Y,Z Vertex 3 {m}
  -4.2672, 0, 0;                          !- X,Y,Z Vertex 4 {m}

OS:Space,
  {df26f40a-11a7-419c-97c1-308b2f622f88}, !- Handle
  Floor 3 Work,                           !- Name
  {d0ffff36-32f4-4dd5-96b7-d18140381350}, !- Space Type Name
  ,                                       !- Default Construction Set Name
  ,                                       !- Default Schedule Set Name
  0,                                      !- Direction of Relative North {deg}
  50.5968,                                !- X Origin {m}
  18.5928,                                !- Y Origin {m}
  6.096,                                  !- Z Origin {m}
  {d66b19da-fd91-4b80-bd09-8bfd21764430}, !- Building Story Name
  {ba267d56-cf36-4aae-835d-2a21e7da4de6}, !- Thermal Zone Name
  Yes;                                    !- Part of Total Floor Area

OS:Surface,
  {d263be24-07ea-4a47-8058-a0fa5b81f5b1}, !- Handle
  46292D,                                 !- Name
  Wall,                                   !- Surface Type
  ,                                       !- Construction Name
  {ee887389-8b4d-4adf-8cbb-17efba387725}, !- Space Name
  Surface,                                !- Outside Boundary Condition
  {49a932d7-a1f8-4848-94e8-0af01fdac8bd}, !- Outside Boundary Condition Object
  NoSun,                                  !- Sun Exposure
  NoWind,                                 !- Wind Exposure
  ,                                       !- View Factor to Ground
  ,                                       !- Number of Vertices
  0, 0, 3.048,                            !- X,Y,Z Vertex 1 {m}
  0, 0, 0,                                !- X,Y,Z Vertex 2 {m}
  0, 1.8288, 0,                           !- X,Y,Z Vertex 3 {m}
  0, 1.8288, 3.048;                       !- X,Y,Z Vertex 4 {m}

OS:Space,
  {ee887389-8b4d-4adf-8cbb-17efba387725}, !- Handle
  Floor 3 Dressing Room,                  !- Name
  {5c1c03a0-baa6-43df-8b89-8270096de070}, !- Space Type Name
  ,                                       !- Default Construction Set Name
  ,                                       !- Default Schedule Set Name
  0,                                      !- Direction of Relative North {deg}
  39.0144,                                !- X Origin {m}
  10.9728,                                !- Y Origin {m}
  6.096,                                  !- Z Origin {m}
  {d66b19da-fd91-4b80-bd09-8bfd21764430}, !- Building Story Name
  {ab5513b2-7636-4c82-9678-fad0710666ff}, !- Thermal Zone Name
  Yes;                                    !- Part of Total Floor Area

OS:Surface,
  {88c1f545-79c4-4823-b4ab-f2891a696643}, !- Handle
  Floor 3 Physical Therapy Toilet Roof,   !- Name
  RoofCeiling,                            !- Surface Type
  ,                                       !- Construction Name
  {a4fb9738-10d0-4f34-ae49-734ffe7d4a6e}, !- Space Name
  Outdoors,                               !- Outside Boundary Condition
  ,                                       !- Outside Boundary Condition Object
  SunExposed,                             !- Sun Exposure
  WindExposed,                            !- Wind Exposure
  ,                                       !- View Factor to Ground
  ,                                       !- Number of Vertices
  0, 1.8288, 3.048,                       !- X,Y,Z Vertex 1 {m}
  0, 5.4864, 3.048,                       !- X,Y,Z Vertex 2 {m}
  -2.1336, 5.4864, 3.048,                 !- X,Y,Z Vertex 3 {m}
  -2.1336, 1.8288, 3.048;                 !- X,Y,Z Vertex 4 {m}

OS:Space,
  {a4fb9738-10d0-4f34-ae49-734ffe7d4a6e}, !- Handle
  Floor 3 Physical Therapy Toilet,        !- Name
  {b132709a-8173-41dd-9578-06d851786540}, !- Space Type Name
  ,                                       !- Default Construction Set Name
  ,                                       !- Default Schedule Set Name
  0,                                      !- Direction of Relative North {deg}
  39.0144,                                !- X Origin {m}
  10.9728,                                !- Y Origin {m}
  6.096,                                  !- Z Origin {m}
  {d66b19da-fd91-4b80-bd09-8bfd21764430}, !- Building Story Name
  {66bef70e-8ad4-40a5-8288-2c2874385712}, !- Thermal Zone Name
  Yes;                                    !- Part of Total Floor Area

OS:Space,
  {701af467-61d5-43f4-b841-aa2d005938fd}, !- Handle
  Floor 3 Office Toilet,                  !- Name
  {b132709a-8173-41dd-9578-06d851786540}, !- Space Type Name
  ,                                       !- Default Construction Set Name
  ,                                       !- Default Schedule Set Name
  0,                                      !- Direction of Relative North {deg}
  0,                                      !- X Origin {m}
  24.384,                                 !- Y Origin {m}
  6.096,                                  !- Z Origin {m}
  {d66b19da-fd91-4b80-bd09-8bfd21764430}, !- Building Story Name
  {6cea790b-9904-49c3-afe0-559251a78f8d}, !- Thermal Zone Name
  Yes;                                    !- Part of Total Floor Area

OS:Space,
  {985c61fb-783a-4b92-a34d-235dbff8ebc0}, !- Handle
  Floor 1 Utility Room,                   !- Name
  {d5036be5-3824-404e-9091-02d865283c2f}, !- Space Type Name
  ,                                       !- Default Construction Set Name
  ,                                       !- Default Schedule Set Name
  0,                                      !- Direction of Relative North {deg}
  50.5968,                                !- X Origin {m}
  20.7264,                                !- Y Origin {m}
  0,                                      !- Z Origin {m}
  {faa479b0-c744-4377-8d20-7db5183673cd}, !- Building Story Name
  {a6674a76-0d83-4b31-93d8-96d87cc04b48}, !- Thermal Zone Name
  Yes;                                    !- Part of Total Floor Area

OS:Space,
  {59deb157-6cde-47ae-9c2a-6fc9e3049325}, !- Handle
  Floor 1 Nurse Janitor,                  !- Name
  {d5036be5-3824-404e-9091-02d865283c2f}, !- Space Type Name
  ,                                       !- Default Construction Set Name
  ,                                       !- Default Schedule Set Name
  0,                                      !- Direction of Relative North {deg}
  29.2608,                                !- X Origin {m}
  16.764,                                 !- Y Origin {m}
  0,                                      !- Z Origin {m}
  {faa479b0-c744-4377-8d20-7db5183673cd}, !- Building Story Name
  {80daea16-f216-4606-9b5b-b798a3893a22}, !- Thermal Zone Name
  Yes;                                    !- Part of Total Floor Area

OS:Space,
  {0bc6fb6b-c93c-44ab-ad46-d5885e8a45a5}, !- Handle
  Floor 2 Scheduling 1,                   !- Name
  {d0ffff36-32f4-4dd5-96b7-d18140381350}, !- Space Type Name
  ,                                       !- Default Construction Set Name
  ,                                       !- Default Schedule Set Name
  0,                                      !- Direction of Relative North {deg}
  44.5008,                                !- X Origin {m}
  16.4592,                                !- Y Origin {m}
  3.048,                                  !- Z Origin {m}
  {8d24ab9c-279b-4457-9719-9c774ab72027}, !- Building Story Name
  {3547744a-b8ca-47ec-87ac-c20b8e39ced4}, !- Thermal Zone Name
  Yes;                                    !- Part of Total Floor Area

OS:Surface,
  {29f220b4-2b6f-435b-a655-825ed9073387}, !- Handle
  B29215,                                 !- Name
  Floor,                                  !- Surface Type
  ,                                       !- Construction Name
  {7cd65d81-0fd7-4680-9f0c-6662fac76e15}, !- Space Name
  Surface,                                !- Outside Boundary Condition
  {b520791e-b791-41d7-ac48-a9c2d33b4c41}, !- Outside Boundary Condition Object
  NoSun,                                  !- Sun Exposure
  NoWind,                                 !- Wind Exposure
  ,                                       !- View Factor to Ground
  ,                                       !- Number of Vertices
  7.0104, -4.572, 0,                      !- X,Y,Z Vertex 1 {m}
  7.0104, -7.0104, 0,                     !- X,Y,Z Vertex 2 {m}
  2.4384, -7.0104, 0,                     !- X,Y,Z Vertex 3 {m}
  2.4384, -4.572, 0;                      !- X,Y,Z Vertex 4 {m}

OS:Space,
  {7cd65d81-0fd7-4680-9f0c-6662fac76e15}, !- Handle
  Floor 3 Lounge,                         !- Name
  {cae81320-5cdd-4aaf-b350-c55af0100b6e}, !- Space Type Name
  ,                                       !- Default Construction Set Name
  ,                                       !- Default Schedule Set Name
  0,                                      !- Direction of Relative North {deg}
  37.4904,                                !- X Origin {m}
  28.3464,                                !- Y Origin {m}
  6.096,                                  !- Z Origin {m}
  {d66b19da-fd91-4b80-bd09-8bfd21764430}, !- Building Story Name
  {f02a3354-7e03-479f-993d-7319ef87ac21}, !- Thermal Zone Name
  Yes;                                    !- Part of Total Floor Area

OS:Surface,
  {3c931c33-a218-4b61-802e-3b378ba4a049}, !- Handle
  E0CB0D,                                 !- Name
  Wall,                                   !- Surface Type
  ,                                       !- Construction Name
  {8d5f18f1-6b75-4d1b-a576-8f7ffb2b987c}, !- Space Name
  Surface,                                !- Outside Boundary Condition
  {c7316426-6f92-452f-ad94-f4059906987e}, !- Outside Boundary Condition Object
  NoSun,                                  !- Sun Exposure
  NoWind,                                 !- Wind Exposure
  ,                                       !- View Factor to Ground
  ,                                       !- Number of Vertices
  -3.6576, -3.9624, 3.048,                !- X,Y,Z Vertex 1 {m}
  -3.6576, -3.9624, 0,                    !- X,Y,Z Vertex 2 {m}
  -3.6576, -10.0584, 0,                   !- X,Y,Z Vertex 3 {m}
  -3.6576, -10.0584, 3.048;               !- X,Y,Z Vertex 4 {m}

OS:Space,
  {8d5f18f1-6b75-4d1b-a576-8f7ffb2b987c}, !- Handle
  Floor 3 Elevator Hall,                  !- Name
  {e9e0566a-64c5-415c-bc0c-b20e73a459af}, !- Space Type Name
  ,                                       !- Default Construction Set Name
  ,                                       !- Default Schedule Set Name
  0,                                      !- Direction of Relative North {deg}
  5.7912,                                 !- X Origin {m}
  28.3464,                                !- Y Origin {m}
  6.096,                                  !- Z Origin {m}
  {d66b19da-fd91-4b80-bd09-8bfd21764430}, !- Building Story Name
  {b32d425c-cb5f-4d1d-a997-3a7fefded9b9}, !- Thermal Zone Name
  Yes;                                    !- Part of Total Floor Area

OS:Surface,
  {27653a86-5e1d-43a3-afa0-679aad100119}, !- Handle
  772953,                                 !- Name
  Floor,                                  !- Surface Type
  ,                                       !- Construction Name
  {7e5bf695-92c1-44ee-84e9-586360bed575}, !- Space Name
  Surface,                                !- Outside Boundary Condition
  {bb20f2e8-8632-475b-8210-187fb2df13e9}, !- Outside Boundary Condition Object
  NoSun,                                  !- Sun Exposure
  NoWind,                                 !- Wind Exposure
  ,                                       !- View Factor to Ground
  ,                                       !- Number of Vertices
  -0.9144, 0, 0,                          !- X,Y,Z Vertex 1 {m}
  -0.9144, -9.144, 0,                     !- X,Y,Z Vertex 2 {m}
  -1.8288, -9.144, 0,                     !- X,Y,Z Vertex 3 {m}
  -1.8288, 0, 0;                          !- X,Y,Z Vertex 4 {m}

OS:Space,
  {7e5bf695-92c1-44ee-84e9-586360bed575}, !- Handle
  Floor 2 Exam Hall 5,                    !- Name
  {0496ee97-02fd-4df4-87da-ec4ddd8e5a0c}, !- Space Type Name
  ,                                       !- Default Construction Set Name
  ,                                       !- Default Schedule Set Name
  0,                                      !- Direction of Relative North {deg}
  30.7848,                                !- X Origin {m}
  28.3464,                                !- Y Origin {m}
  3.048,                                  !- Z Origin {m}
  {8d24ab9c-279b-4457-9719-9c774ab72027}, !- Building Story Name
  {3a1e6bd2-1c56-4480-ad48-3e46a19c599d}, !- Thermal Zone Name
  Yes;                                    !- Part of Total Floor Area

OS:Space,
  {961bf9d6-3ed7-4e94-ad5c-99b459658f3c}, !- Handle
  Floor 2 Reception Toilet,               !- Name
  {b132709a-8173-41dd-9578-06d851786540}, !- Space Type Name
  ,                                       !- Default Construction Set Name
  ,                                       !- Default Schedule Set Name
  0,                                      !- Direction of Relative North {deg}
  17.9832,                                !- X Origin {m}
  10.9728,                                !- Y Origin {m}
  3.048,                                  !- Z Origin {m}
  {8d24ab9c-279b-4457-9719-9c774ab72027}, !- Building Story Name
  {a1d9d0f9-601c-4f14-be6c-d7b7017929cd}, !- Thermal Zone Name
  Yes;                                    !- Part of Total Floor Area

OS:Space,
  {75d0c5d8-c7ef-4e6f-a4df-908ffbbed64e}, !- Handle
  Floor 2 Nurse Station 2,                !- Name
  {08a1d426-c82d-4f0c-9dde-c9269224780e}, !- Space Type Name
  ,                                       !- Default Construction Set Name
  ,                                       !- Default Schedule Set Name
  0,                                      !- Direction of Relative North {deg}
  23.4696,                                !- X Origin {m}
  21.336,                                 !- Y Origin {m}
  3.048,                                  !- Z Origin {m}
  {8d24ab9c-279b-4457-9719-9c774ab72027}, !- Building Story Name
  {0a24c2ed-7297-4a19-ab19-a85382c38b27}, !- Thermal Zone Name
  Yes;                                    !- Part of Total Floor Area

OS:Surface,
  {e91ad0b4-51f3-4522-8edf-227ac9b1e645}, !- Handle
  C271D9,                                 !- Name
  Floor,                                  !- Surface Type
  ,                                       !- Construction Name
  {55fd929e-e62d-4368-ab9a-c979fb9f9b97}, !- Space Name
  Surface,                                !- Outside Boundary Condition
  {087a2cb1-1d57-45f1-82b4-826109b0f19f}, !- Outside Boundary Condition Object
  NoSun,                                  !- Sun Exposure
  NoWind,                                 !- Wind Exposure
  ,                                       !- View Factor to Ground
  ,                                       !- Number of Vertices
  4.8768, -1.8288, 0,                     !- X,Y,Z Vertex 1 {m}
  4.8768, -4.8768, 0,                     !- X,Y,Z Vertex 2 {m}
  3.048, -4.8768, 0,                      !- X,Y,Z Vertex 3 {m}
  3.048, -1.8288, 0;                      !- X,Y,Z Vertex 4 {m}

OS:Space,
  {55fd929e-e62d-4368-ab9a-c979fb9f9b97}, !- Handle
  Floor 3 Physical Therapy 2,             !- Name
  {fa6c3042-d878-4baf-be36-47b2b7377156}, !- Space Type Name
  ,                                       !- Default Construction Set Name
  ,                                       !- Default Schedule Set Name
  0,                                      !- Direction of Relative North {deg}
  35.052,                                 !- X Origin {m}
  10.9728,                                !- Y Origin {m}
  6.096,                                  !- Z Origin {m}
  {d66b19da-fd91-4b80-bd09-8bfd21764430}, !- Building Story Name
  {db673881-340b-4ca8-91e9-64b0f9111c96}, !- Thermal Zone Name
  Yes;                                    !- Part of Total Floor Area

OS:Surface,
  {bdd851b2-52d3-486c-8c29-680851988153}, !- Handle
  Floor 1 Vestibule Slab,                 !- Name
  Floor,                                  !- Surface Type
  {ce24be1f-6292-483d-ad21-c0f9f1d0693e}, !- Construction Name
  {c9d2e614-e457-4c00-b493-1476604fd790}, !- Space Name
  GroundFCfactorMethod,                   !- Outside Boundary Condition
  ,                                       !- Outside Boundary Condition Object
  NoSun,                                  !- Sun Exposure
  NoWind,                                 !- Wind Exposure
  ,                                       !- View Factor to Ground
  ,                                       !- Number of Vertices
  2.7432, 0, 0,                           !- X,Y,Z Vertex 1 {m}
  2.7432, -2.4384, 0,                     !- X,Y,Z Vertex 2 {m}
  0, -2.4384, 0,                          !- X,Y,Z Vertex 3 {m}
  0, 0, 0;                                !- X,Y,Z Vertex 4 {m}

OS:Space,
  {c9d2e614-e457-4c00-b493-1476604fd790}, !- Handle
  Floor 1 Vestibule,                      !- Name
  {e9e0566a-64c5-415c-bc0c-b20e73a459af}, !- Space Type Name
  ,                                       !- Default Construction Set Name
  ,                                       !- Default Schedule Set Name
  0,                                      !- Direction of Relative North {deg}
  17.9832,                                !- X Origin {m}
  7.9248,                                 !- Y Origin {m}
  0,                                      !- Z Origin {m}
  {faa479b0-c744-4377-8d20-7db5183673cd}, !- Building Story Name
  {aaa3a95a-855a-41a3-b631-e7b07fd62408}, !- Thermal Zone Name
  Yes;                                    !- Part of Total Floor Area

OS:Surface,
  {af7318dd-afeb-4277-b7ad-b408ab0a2807}, !- Handle
  Floor 1 IT Hall Slab,                   !- Name
  Floor,                                  !- Surface Type
  {412fff5d-1fdd-4555-b43f-35edf75eb186}, !- Construction Name
  {65ed283c-1371-4be9-914f-f70e1dcf5721}, !- Space Name
  GroundFCfactorMethod,                   !- Outside Boundary Condition
  ,                                       !- Outside Boundary Condition Object
  NoSun,                                  !- Sun Exposure
  NoWind,                                 !- Wind Exposure
  ,                                       !- View Factor to Ground
  ,                                       !- Number of Vertices
  8.5344, 0, 0,                           !- X,Y,Z Vertex 1 {m}
  8.5344, -1.524, 0,                      !- X,Y,Z Vertex 2 {m}
  0, -1.524, 0,                           !- X,Y,Z Vertex 3 {m}
  0, 0, 0;                                !- X,Y,Z Vertex 4 {m}

OS:Space,
  {65ed283c-1371-4be9-914f-f70e1dcf5721}, !- Handle